examples/test_perturbation_outputs/pert_min_cost/pglib_opf_case3375wp_k.m
%% MATPOWER Case Format : Version 2
function mpc = pglib_opf_case3375wp_k
mpc.version = '2';

%%-----  Power Flow Data  -----%%
%% system MVA base
mpc.baseMVA = 100.0;
%% bus data
%    bus_i    type    Pd    Qd    Gs    Bs    area    Vm    Va    baseKV    zone    Vmax    Vmin
mpc.bus = [
	1	1	0.0	0.0	0.0	0.0	1	1.03	0.0	220.0	1	1.11	0.95				
	2	1	0.0	0.0	0.0	0.0	1	1.03	0.0	220.0	1	1.11	0.95				
	3	1	0.0	0.0	0.0	0.0	1	1.03	0.0	220.0	1	1.11	0.95				
	4	1	0.0	0.0	0.0	0.0	1	1.03	0.0	220.0	1	1.11	0.95				
	5	1	0.0	0.0	0.0	0.0	1	1.03	0.0	220.0	1	1.11	0.95				
	6	1	0.0	0.0	0.0	0.0	1	1.03	0.0	220.0	1	1.11	0.95				
	7	1	0.0	0.0	0.0	0.0	1	1.03	0.0	220.0	1	1.11	0.95				
	8	1	0.0	0.0	0.0	0.0	1	1.03	0.0	220.0	1	1.11	0.95				
	9	1	0.0	0.0	0.0	0.0	1	1.03	0.0	220.0	1	1.11	0.95				
	10	1	0.0	0.0	0.0	0.0	1	1.03	0.0	220.0	1	1.11	0.95				
	11	1	0.0	0.0	0.0	0.0	1	1.0	0.0	400.0	1	1.05	0.95				
	12	1	0.0	0.0	0.0	0.0	1	1.0	0.0	400.0	1	1.05	0.95				
	13	1	0.0	0.0	0.0	0.0	1	1.0	0.0	400.0	1	1.05	0.95				
	14	1	0.0	0.0	0.0	0.0	1	1.03	0.0	220.0	1	1.11	0.95				
	15	1	0.0	0.0	0.0	0.0	1	1.03	0.0	220.0	1	1.11	0.95				
	16	1	0.0	0.0	0.0	0.0	1	1.03	0.0	220.0	1	1.11	0.95				
	17	1	0.0	0.0	0.0	0.0	1	1.03	0.0	220.0	1	1.11	0.95				
	18	1	0.0	0.0	0.0	0.0	1	1.03	0.0	220.0	1	1.11	0.95				
	19	1	0.0	0.0	0.0	0.0	1	1.0	0.0	400.0	1	1.05	0.95				
	20	1	0.0	0.0	0.0	0.0	1	1.0	0.0	400.0	1	1.05	0.95				
	21	1	0.0	0.0	0.0	0.0	1	1.0	0.0	400.0	1	1.05	0.95				
	22	1	0.0	0.0	0.0	0.0	1	1.0	0.0	400.0	1	1.05	0.95				
	23	1	0.0	0.0	0.0	0.0	1	1.0	0.0	400.0	1	1.05	0.95				
	24	2	10.0	20.1	0.0	0.0	1	1.03	0.0	220.0	1	1.11	0.95				
	25	2	10.0	20.1	0.0	0.0	1	1.03	0.0	220.0	1	1.11	0.95				
	26	1	0.0	0.0	0.0	0.0	1	1.03	0.0	220.0	1	1.11	0.95				
	27	1	0.0	0.0	0.0	0.0	1	1.03	0.0	220.0	1	1.11	0.95				
	28	1	0.0	0.0	0.0	0.0	1	1.03	0.0	220.0	1	1.11	0.95				
	29	1	0.0	0.0	0.0	0.0	1	1.03	0.0	220.0	1	1.11	0.95				
	30	1	0.0	0.0	0.0	0.0	1	1.03	0.0	220.0	1	1.11	0.95				
	31	1	0.0	0.0	0.0	0.0	1	1.03	0.0	220.0	1	1.11	0.95				
	32	1	0.0	0.0	0.0	0.0	1	1.03	0.0	220.0	1	1.11	0.95				
	33	1	0.0	0.0	0.0	0.0	1	1.03	0.0	220.0	1	1.11	0.95				
	34	1	0.0	0.0	0.0	0.0	1	1.0	0.0	400.0	1	1.05	0.95				
	35	1	0.0	0.0	0.0	0.0	1	1.0	0.0	400.0	1	1.05	0.95				
	36	1	0.0	0.0	0.0	0.0	1	1.0	0.0	400.0	1	1.05	0.95				
	37	3	48.7	86.2	0.0	0.0	1	1.03	0.0	220.0	1	1.11	0.95				
	38	2	54.50000000000001	89.9	0.0	0.0	1	1.03	0.0	220.0	1	1.11	0.95				
	39	2	20.1	40.2	0.0	0.0	1	1.03	0.0	220.0	1	1.11	0.95				
	40	2	60.3	120.6	0.0	0.0	1	1.0	0.0	400.0	1	1.05	0.95				
	41	2	60.3	120.6	0.0	0.0	1	1.0	0.0	400.0	1	1.05	0.95				
	42	1	0.0	0.0	0.0	0.0	1	1.03	0.0	220.0	1	1.11	0.95				
	43	1	0.0	0.0	0.0	0.0	1	1.03	0.0	220.0	1	1.11	0.95				
	44	1	0.0	0.0	0.0	0.0	1	1.0	0.0	400.0	1	1.05	0.95				
	45	1	0.0	0.0	0.0	0.0	1	1.0	0.0	400.0	1	1.05	0.95				
	46	1	0.0	0.0	0.0	0.0	1	1.03	0.0	220.0	1	1.11	0.95				
	47	1	0.0	0.0	0.0	0.0	1	1.03	0.0	220.0	1	1.11	0.95				
	48	1	0.0	0.0	0.0	0.0	1	1.03	0.0	220.0	1	1.11	0.95				
	49	1	0.0	0.0	0.0	0.0	1	1.03	0.0	220.0	2	1.11	0.95				
	50	1	0.0	0.0	0.0	0.0	1	1.03	0.0	220.0	2	1.11	0.95				
	51	1	0.0	0.0	0.0	0.0	1	1.03	0.0	220.0	2	1.11	0.95				
	52	1	0.0	0.0	0.0	0.0	1	1.03	0.0	220.0	2	1.11	0.95				
	53	1	0.0	0.0	0.0	0.0	1	1.03	0.0	220.0	2	1.11	0.95				
	54	1	3.2	1.0	0.0	0.0	1	1.03	0.0	220.0	2	1.11	0.95				
	55	1	0.0	0.0	0.0	0.0	1	1.03	0.0	220.0	2	1.11	0.95				
	56	1	0.0	0.0	0.0	0.0	1	1.0	0.0	400.0	2	1.05	0.95				
	57	2	26.1	60.3	0.0	0.0	1	1.03	0.0	220.0	2	1.11	0.95				
	58	2	54.29999999999999	120.6	0.0	0.0	1	1.03	0.0	220.0	2	1.11	0.95				
	59	2	13.100000000000001	30.099999999999998	0.0	0.0	1	1.03	0.0	220.0	2	1.11	0.95				
	60	2	26.1	50.2	0.0	0.0	1	1.0	0.0	400.0	2	1.05	0.95				
	61	2	26.1	50.2	0.0	0.0	1	1.0	0.0	400.0	2	1.05	0.95				
	62	1	0.0	0.0	0.0	0.0	1	1.03	0.0	220.0	2	1.11	0.95				
	63	1	0.0	0.0	0.0	0.0	1	1.0	0.0	400.0	2	1.05	0.95				
	64	1	0.0	0.0	0.0	0.0	1	1.0	0.0	400.0	2	1.05	0.95				
	65	1	0.0	0.0	0.0	0.0	1	1.0	0.0	400.0	2	1.05	0.95				
	66	1	0.0	0.0	0.0	0.0	1	1.03	0.0	220.0	2	1.11	0.95				
	67	1	0.0	0.0	0.0	0.0	1	1.03	0.0	220.0	2	1.11	0.95				
	68	1	0.0	0.0	0.0	0.0	1	1.0	0.0	400.0	2	1.05	0.95				
	69	1	0.0	0.0	0.0	0.0	1	1.0	0.0	400.0	2	1.05	0.95				
	70	2	13.100000000000001	30.099999999999998	0.0	0.0	1	1.03	0.0	220.0	2	1.11	0.95				
	71	2	13.100000000000001	30.099999999999998	0.0	0.0	1	1.03	0.0	220.0	2	1.11	0.95				
	72	2	13.100000000000001	30.099999999999998	0.0	0.0	1	1.0	0.0	400.0	2	1.05	0.95				
	73	2	26.1	60.3	0.0	0.0	1	1.0	0.0	400.0	2	1.05	0.95				
	74	2	149.7	60.3	0.0	0.0	1	1.03	0.0	220.0	2	1.11	0.95				
	75	1	29.100000000000005	10.0	0.0	0.0	1	1.03	0.0	220.0	2	1.11	0.95				
	76	1	0.0	0.0	0.0	0.0	1	1.03	0.0	220.0	2	1.11	0.95				
	77	1	0.0	0.0	0.0	0.0	1	1.03	0.0	220.0	2	1.11	0.95				
	78	1	0.0	0.0	0.0	0.0	1	1.03	0.0	220.0	2	1.11	0.95				
	79	1	0.0	0.0	0.0	0.0	1	1.03	0.0	220.0	2	1.11	0.95				
	80	1	0.0	0.0	0.0	0.0	1	1.0	0.0	400.0	2	1.05	0.95				
	81	1	0.0	0.0	0.0	0.0	1	1.0	0.0	400.0	2	1.05	0.95				
	82	1	0.0	0.0	0.0	0.0	1	1.03	0.0	220.0	2	1.11	0.95				
	83	1	0.0	0.0	0.0	0.0	1	1.03	0.0	220.0	2	1.11	0.95				
	84	1	0.0	0.0	0.0	0.0	1	1.03	0.0	220.0	2	1.11	0.95				
	85	1	0.0	0.0	0.0	0.0	1	1.03	0.0	220.0	3	1.11	0.95				
	86	1	9.4	0.0	0.0	0.0	1	1.03	0.0	220.0	3	1.11	0.95				
	87	1	8.2	0.0	0.0	0.0	1	1.03	0.0	220.0	3	1.11	0.95				
	88	1	0.0	0.0	0.0	0.0	1	1.03	0.0	220.0	3	1.11	0.95				
	89	1	0.0	0.0	0.0	0.0	1	1.03	0.0	220.0	3	1.11	0.95				
	90	1	0.0	0.0	0.0	0.0	1	1.03	0.0	220.0	3	1.11	0.95				
	91	1	0.0	0.0	0.0	0.0	1	1.03	0.0	220.0	3	1.11	0.95				
	92	1	0.0	0.0	0.0	0.0	1	1.03	0.0	220.0	3	1.11	0.95				
	93	1	0.0	0.0	0.0	0.0	1	1.03	0.0	220.0	3	1.11	0.95				
	94	2	28.1	70.3	0.0	0.0	1	1.03	0.0	220.0	3	1.11	0.95				
	95	2	42.2	103.49999999999999	0.0	0.0	1	1.03	0.0	220.0	3	1.11	0.95				
	96	1	7.7	-25.0	0.0	0.0	1	1.03	0.0	220.0	3	1.11	0.95				
	97	1	0.0	0.0	0.0	0.0	1	1.03	0.0	220.0	3	1.11	0.95				
	98	2	32.2	142.7	0.0	0.0	1	1.0	0.0	400.0	3	1.05	0.95				
	99	1	0.0	0.0	0.0	0.0	1	1.0	0.0	400.0	3	1.05	0.95				
	100	1	0.0	0.0	0.0	0.0	1	1.03	0.0	220.0	3	1.11	0.95				
	101	1	0.0	0.0	0.0	0.0	1	1.03	0.0	220.0	3	1.11	0.95				
	102	1	0.0	0.0	0.0	0.0	1	1.03	0.0	220.0	3	1.11	0.95				
	103	1	45.1	7.9	0.0	0.0	1	1.03	0.0	220.0	3	1.11	0.95				
	104	1	0.0	0.0	0.0	0.0	1	1.03	0.0	220.0	3	1.11	0.95				
	105	1	0.0	0.0	0.0	0.0	1	1.03	0.0	220.0	3	1.11	0.95				
	106	1	0.0	0.0	0.0	0.0	1	1.03	0.0	220.0	3	1.11	0.95				
	107	1	0.0	0.0	0.0	0.0	1	1.03	0.0	220.0	3	1.11	0.95				
	108	1	0.0	0.0	0.0	0.0	1	1.03	0.0	220.0	3	1.11	0.95				
	109	1	0.0	0.0	0.0	0.0	1	1.0	0.0	400.0	3	1.05	0.95				
	110	1	0.0	0.0	0.0	0.0	1	1.0	0.0	400.0	3	1.05	0.95				
	111	1	0.0	0.0	0.0	0.0	1	1.03	0.0	220.0	3	1.11	0.95				
	112	1	0.0	0.0	0.0	0.0	1	1.03	0.0	220.0	3	1.11	0.95				
	113	1	0.0	0.0	0.0	0.0	1	1.03	0.0	220.0	3	1.11	0.95				
	114	1	0.0	0.0	0.0	0.0	1	1.03	0.0	220.0	3	1.11	0.95				
	115	2	29.4	18.5	0.0	0.0	1	1.03	0.0	220.0	3	1.11	0.95				
	116	1	0.0	0.0	0.0	0.0	1	1.03	0.0	220.0	3	1.11	0.95				
	117	1	0.0	0.0	0.0	0.0	1	1.03	0.0	220.0	3	1.11	0.95				
	118	1	0.0	0.0	0.0	0.0	1	1.03	0.0	220.0	3	1.11	0.95				
	119	1	0.0	0.0	0.0	0.0	1	1.03	0.0	220.0	3	1.11	0.95				
	120	1	0.0	0.0	0.0	0.0	1	1.03	0.0	220.0	3	1.11	0.95				
	121	1	0.0	0.0	0.0	0.0	1	1.03	0.0	220.0	3	1.11	0.95				
	122	2	10.0	44.2	0.0	0.0	1	1.03	0.0	220.0	3	1.11	0.95				
	123	2	7.000000000000001	18.1	0.0	0.0	1	1.03	0.0	220.0	3	1.11	0.95				
	124	2	8.0	21.1	0.0	0.0	1	1.03	0.0	220.0	3	1.11	0.95				
	125	1	0.0	0.0	0.0	0.0	1	1.03	0.0	220.0	3	1.11	0.95				
	126	1	71.5	7.9	0.0	0.0	1	1.03	0.0	220.0	3	1.11	0.95				
	127	1	0.0	0.0	0.0	0.0	1	1.03	0.0	220.0	3	1.11	0.95				
	128	1	0.0	0.0	0.0	0.0	1	1.03	0.0	220.0	3	1.11	0.95				
	129	1	0.0	0.0	0.0	0.0	1	1.03	0.0	220.0	3	1.11	0.95				
	130	1	0.0	0.0	0.0	0.0	1	1.03	0.0	220.0	3	1.11	0.95				
	131	1	0.0	0.0	0.0	0.0	1	1.03	0.0	220.0	3	1.11	0.95				
	132	1	0.0	0.0	0.0	0.0	1	1.0	0.0	400.0	3	1.05	0.95				
	133	1	0.0	0.0	0.0	0.0	1	1.0	0.0	400.0	3	1.05	0.95				
	134	1	0.0	0.0	0.0	0.0	1	1.03	0.0	220.0	3	1.11	0.95				
	135	2	9.0	20.1	0.0	0.0	1	1.03	0.0	220.0	3	1.11	0.95				
	136	2	6.0	15.1	0.0	0.0	1	1.03	0.0	220.0	3	1.11	0.95				
	137	1	0.0	0.0	0.0	0.0	1	1.03	0.0	220.0	3	1.11	0.95				
	138	1	0.0	0.0	0.0	0.0	1	1.0	0.0	400.0	3	1.05	0.95				
	139	1	0.0	0.0	0.0	0.0	1	1.0	0.0	400.0	3	1.05	0.95				
	140	1	0.0	0.0	0.0	0.0	1	1.0	0.0	400.0	3	1.05	0.95				
	141	1	0.0	0.0	0.0	0.0	1	1.0	0.0	400.0	3	1.05	0.95				
	142	1	0.0	0.0	0.0	0.0	1	1.03	0.0	220.0	3	1.11	0.95				
	143	1	0.0	0.0	0.0	0.0	1	1.03	0.0	220.0	3	1.11	0.95				
	144	2	18.3	15.9	0.0	0.0	1	1.03	0.0	220.0	3	1.11	0.95				
	145	2	41.0	43.1	0.0	0.0	1	1.03	0.0	220.0	3	1.11	0.95				
	146	2	28.1	66.3	0.0	0.0	1	1.0	0.0	400.0	3	1.05	0.95				
	147	1	0.0	0.0	0.0	0.0	1	1.0	0.0	400.0	3	1.05	0.95				
	148	1	0.0	0.0	0.0	0.0	1	1.03	0.0	220.0	3	1.11	0.95				
	149	1	0.0	0.0	0.0	0.0	1	1.03	0.0	220.0	3	1.11	0.95				
	150	1	0.0	0.0	0.0	0.0	1	1.03	0.0	220.0	3	1.11	0.95				
	151	1	0.0	0.0	0.0	0.0	1	1.03	0.0	220.0	3	1.11	0.95				
	152	1	0.0	0.0	0.0	0.0	1	1.03	0.0	220.0	3	1.11	0.95				
	153	1	0.0	0.0	0.0	0.0	1	1.03	0.0	220.0	3	1.11	0.95				
	154	2	7.8	20.1	0.0	0.0	1	1.03	0.0	220.0	4	1.11	0.95				
	155	2	8.0	20.1	0.0	0.0	1	1.03	0.0	220.0	4	1.11	0.95				
	156	1	0.0	0.0	0.0	0.0	1	1.03	0.0	220.0	4	1.11	0.95				
	157	1	0.0	0.0	0.0	0.0	1	1.03	0.0	220.0	4	1.11	0.95				
	158	1	0.0	0.0	0.0	0.0	1	1.03	0.0	220.0	4	1.11	0.95				
	159	1	0.0	0.0	0.0	0.0	1	1.03	0.0	220.0	4	1.11	0.95				
	160	1	0.0	0.0	0.0	0.0	1	1.03	0.0	220.0	4	1.11	0.95				
	161	1	0.0	0.0	0.0	0.0	1	1.0	0.0	400.0	4	1.05	0.95				
	162	1	0.0	0.0	0.0	0.0	1	1.0	0.0	400.0	4	1.05	0.95				
	163	1	0.0	0.0	0.0	0.0	1	1.03	0.0	220.0	4	1.11	0.95				
	164	1	0.0	0.0	0.0	0.0	1	1.03	0.0	220.0	4	1.11	0.95				
	165	1	0.0	0.0	0.0	0.0	1	1.03	0.0	220.0	4	1.11	0.95				
	166	1	0.0	0.0	0.0	0.0	1	1.03	0.0	220.0	4	1.11	0.95				
	167	1	0.0	0.0	0.0	0.0	1	1.03	0.0	220.0	4	1.11	0.95				
	168	1	0.0	0.0	0.0	0.0	1	1.03	0.0	220.0	4	1.11	0.95				
	169	1	0.0	0.0	0.0	0.0	1	1.03	0.0	220.0	4	1.11	0.95				
	170	1	0.0	0.0	0.0	0.0	1	1.03	0.0	220.0	4	1.11	0.95				
	171	1	0.0	0.0	0.0	0.0	1	1.03	0.0	220.0	4	1.11	0.95				
	172	2	12.1	30.099999999999998	0.0	0.0	1	1.03	0.0	220.0	4	1.11	0.95				
	173	1	9.4	2.4	0.0	0.0	1	1.03	0.0	220.0	4	1.11	0.95				
	174	2	12.1	30.099999999999998	0.0	0.0	1	1.0	0.0	400.0	4	1.05	0.95				
	175	2	24.1	60.3	0.0	0.0	1	1.0	0.0	400.0	4	1.05	0.95				
	176	1	0.0	0.0	0.0	0.0	1	1.03	0.0	220.0	4	1.11	0.95				
	177	1	0.0	0.0	0.0	0.0	1	1.03	0.0	220.0	4	1.11	0.95				
	178	1	0.0	0.0	0.0	0.0	1	1.03	0.0	220.0	4	1.11	0.95				
	179	1	0.0	0.0	0.0	0.0	1	1.03	0.0	220.0	4	1.11	0.95				
	180	2	26.1	64.3	0.0	0.0	1	1.03	0.0	220.0	4	1.11	0.95				
	181	2	26.1	64.3	0.0	0.0	1	1.03	0.0	220.0	4	1.11	0.95				
	182	2	26.1	64.5	0.0	0.0	1	1.03	0.0	220.0	4	1.11	0.95				
	183	2	26.1	64.5	0.0	0.0	1	1.0	0.0	400.0	4	1.05	0.95				
	184	1	0.0	0.0	0.0	0.0	1	1.0	0.0	400.0	4	1.05	0.95				
	185	1	0.0	0.0	0.0	0.0	1	1.03	0.0	220.0	4	1.11	0.95				
	186	1	0.0	0.0	0.0	0.0	1	1.03	0.0	220.0	4	1.11	0.95				
	187	1	0.0	0.0	0.0	0.0	1	1.0	0.0	400.0	4	1.05	0.95				
	188	1	0.0	0.0	0.0	0.0	1	1.0	0.0	400.0	4	1.05	0.95				
	189	1	0.0	0.0	0.0	0.0	1	1.0	0.0	400.0	4	1.05	0.95				
	190	1	0.0	0.0	0.0	0.0	1	1.0	0.0	400.0	4	1.05	0.95				
	191	2	12.1	30.099999999999998	0.0	0.0	1	1.03	0.0	220.0	4	1.11	0.95				
	192	2	14.7	30.599999999999998	0.0	0.0	1	1.03	0.0	220.0	4	1.11	0.95				
	193	2	38.2	64.3	0.0	0.0	1	1.0	0.0	400.0	4	1.05	0.95				
	194	1	0.0	0.0	0.0	0.0	1	1.03	0.0	220.0	4	1.11	0.95				
	195	1	0.0	0.0	0.0	0.0	1	1.03	0.0	220.0	4	1.11	0.95				
	196	1	0.0	0.0	0.0	0.0	1	1.03	0.0	220.0	4	1.11	0.95				
	197	1	0.0	0.0	0.0	0.0	1	1.03	0.0	220.0	4	1.11	0.95				
	198	1	0.0	0.0	0.0	0.0	1	1.03	0.0	220.0	4	1.11	0.95				
	199	1	0.0	0.0	0.0	0.0	1	1.03	0.0	220.0	4	1.11	0.95				
	200	1	0.0	0.0	0.0	0.0	1	1.0	0.0	400.0	4	1.05	0.95				
...
];

%% generator data
%    bus    Pg    Qg    Qmax    Qmin    Vg    mBase    status    Pmax    Pmin    Pc1    Pc2    Qc1min    Qc1max    Qc2min    Qc2max    ramp_agc    ramp_10    ramp_30    ramp_q    apf
mpc.gen = [
	10071	169.25	0.0	103.0	-103.0	1.03	285.0	1	204.6	133.9															
	10079	454.9	1862.5	4000.0	-275.0	1.0	2031.0	1	549.9	359.9															
	10080	9.6	0.0	6.0	-6.0	1.0	119.0	1	11.6	7.6															
	10090	518.7	0.0	314.0	-314.0	1.0	806.0	1	627.0	410.40000000000003															
	10094	700.7	0.0	424.0	-424.0	1.0	970.0	1	847.0000000000001	554.4															
	10095	681.65	0.0	621.0	-621.0	1.0	1439.0	1	1241.5	121.8															
	10100	1601.6	0.0	968.0	-968.0	1.0	2202.0	1	1936.0	1267.2															
	10104	682.5	0.0	413.0	-413.0	1.0	939.0	1	825.0	540.0															
	10115	354.9	0.0	215.0	-215.0	1.0	492.0	1	429.0	280.8															
	10116	354.9	0.0	215.0	-215.0	1.0	492.0	1	429.0	280.8															
	10118	1365.0	0.0	825.0	-825.0	1.0	1876.0	1	1650.0	1080.0															
	10126	536.9	0.0	325.0	-325.0	1.0	786.0	1	649.0	424.8															
	10129	2093.0	0.0	1265.0	-1265.0	1.0	2974.0	1	2530.0	1655.9999999999998															
	10132	737.1	0.0	446.0	-446.0	1.0	1014.0	1	891.0	583.2															
	10139	819.0	0.0	495.0	-495.0	1.0	1143.0	1	990.0	648.0															
	10140	1228.5	0.0	743.0	-743.0	1.0	1705.0	1	1485.0	972.0000000000001															
	10141	1547.0	0.0	935.0	-935.0	1.0	2125.0	1	1870.0	1224.0															
	10146	145.6	0.0	88.0	-88.0	1.03	224.0	1	176.0	115.20000000000002															
	10150	254.8	0.0	154.0	-154.0	1.0	427.0	1	308.0	201.6															
	10171	106.95000000000002	0.0	65.0	-65.0	1.0	715.0	1	129.3	84.6															
	10176	241.4	0.0	146.0	-146.0	1.0	346.0	1	291.8	191.0															
	10177	241.4	0.0	146.0	-146.0	1.0	346.0	1	291.8	191.0															
	10186	438.65	0.0	268.0	-268.0	1.03	618.0	1	534.6	342.7															
	10187	438.65	0.0	268.0	-268.0	1.03	618.0	1	534.6	342.7															
	10188	439.55	0.0	266.0	-266.0	1.0	618.0	1	531.3	347.8															
	10189	412.65	0.0	272.0	-272.0	1.0	620.0	1	542.3	283.0															
	10190	486.05	0.0	301.0	-301.0	1.0	683.0	1	600.6	371.5															
	10191	485.15	0.0	300.0	-300.0	1.0	682.0	1	599.5	370.8															
	10192	179.55	0.0	124.0	-124.0	1.03	281.0	1	247.5	111.6															
	10194	103.90000000000002	0.0	72.0	-72.0	1.0	184.0	1	143.0	64.8															
	10196	136.5	0.0	83.0	-83.0	1.0	215.0	1	165.0	108.0															
	10223	62.74999999999999	0.0	63.0	-63.0	1.0	189.0	1	125.49999999999999	0.0															
	10225	175.3	0.0	137.0	-137.0	1.035	333.0	1	272.8	77.8															
	10226	87.7	0.0	71.0	-71.0	1.035	198.0	1	140.8	34.6															
	10227	14.550000000000002	0.0	9.0	-9.0	1.035	191.0	1	17.6	11.5															
	10228	23.65	0.0	15.0	-15.0	1.035	135.0	1	28.6	18.7															
	10229	50.05	0.0	31.0	-31.0	1.035	85.0	1	60.5	39.6															
	10230	0.05	0.0	1.0	-1.0	1.035	132.0	1	0.1	0.0															
	10232	14.2	0.0	9.0	-9.0	1.035	64.0	1	17.2	11.2															
	10233	57.35	0.0	35.0	-35.0	1.035	79.0	1	69.3	45.4															
	10234	4.55	0.0	3.0	-3.0	1.035	115.0	1	5.5	3.6000000000000005															
	10235	36.4	0.0	22.0	-22.0	1.035	83.0	1	44.0	28.800000000000004															
	10236	151.05	0.0	92.0	-92.0	1.035	219.0	1	182.6	119.5															
	10237	63.7	0.0	39.0	-39.0	1.035	121.0	1	77.0	50.4															
	10238	78.25	0.0	48.0	-48.0	1.035	179.0	1	94.6	61.9															
	10239	79.15	0.0	48.0	-48.0	1.035	109.0	1	95.7	62.6															
	10240	0.05	0.0	1.0	-1.0	1.035	128.0	1	0.1	0.0															
	10246	184.75	0.0	112.00000000000001	-112.00000000000001	1.035	262.0	1	223.3	146.2															
	10247	129.2	0.0	79.0	-79.0	1.035	215.0	1	156.2	102.2															
	10248	154.7	0.0	94.0	-94.0	1.035	241.0	1	187.0	122.39999999999999															
	10249	161.8	0.0	98.0	-98.0	1.035	225.0	1	195.6	128.0															
	10250	473.20000000000005	0.0	286.0	-286.0	1.035	650.0	1	572.0	374.4															
	10251	473.20000000000005	0.0	286.0	-286.0	1.035	650.0	1	572.0	374.4															
	10252	473.20000000000005	0.0	286.0	-286.0	1.035	650.0	1	572.0	374.4															
	10253	237.5	0.0	144.0	-144.0	1.035	341.0	1	287.1	187.9															
	10254	433.15000000000003	0.0	262.0	-262.0	1.035	598.0	1	523.6	342.7															
	10255	152.9	0.0	93.0	-93.0	1.035	210.0	1	184.8	121.0															
	10256	354.9	0.0	215.0	-215.0	1.035	489.0	1	429.0	280.8															
	10257	177.45	0.0	108.0	-108.0	1.035	250.0	1	214.5	140.4															
	10258	163.8	0.0	99.0	-99.0	1.035	230.0	1	198.0	129.6															
	10259	358.55	0.0	217.0	-217.0	1.035	519.0	1	433.4	283.7															
	10260	537.8	0.0	326.0	-326.0	1.035	741.0	1	650.1	425.5															
	10261	765.55	0.0	476.0	-476.0	1.035	1100.0	1	951.5	579.6															
	10262	765.55	0.0	476.0	-476.0	1.035	1100.0	1	951.5	579.6															
	10263	85.55	0.0	52.0	-52.0	1.035	121.0	1	103.4	67.7															
	10264	354.9	0.0	215.0	-215.0	1.035	489.0	1	429.0	280.8															
	10265	354.9	0.0	215.0	-215.0	1.035	496.0	1	429.0	280.8															
	10266	4.55	0.0	3.0	-3.0	1.035	72.0	1	5.5	3.6000000000000005															
	10267	5.45	0.0	4.0	-4.0	1.035	120.0	1	6.6000000000000005	4.3															
	10268	26.400000000000002	0.0	16.0	-16.0	1.035	37.0	1	31.900000000000002	20.9															
	10269	179.95	0.0	146.0	-146.0	1.035	338.0	1	291.5	68.4															
	10270	0.05	0.0	1.0	-1.0	1.035	40.0	1	0.1	0.0															
	10271	197.45	0.0	120.0	-120.0	1.035	286.0	1	238.7	156.2															
	10272	30.95	0.0	19.0	-19.0	1.035	116.0	1	37.4	24.5															
	10273	209.3	0.0	127.0	-127.0	1.035	321.0	1	252.99999999999997	165.6															
	10274	143.35	0.0	112.99999999999999	-112.99999999999999	1.035	317.0	1	225.5	61.199999999999996															
	10275	65.8	0.0	55.00000000000001	-55.00000000000001	1.035	125.0	1	110.00000000000001	21.6															
	10276	135.6	0.0	82.0	-82.0	1.035	189.0	1	163.9	107.3															
	10277	101.9	0.0	62.0	-62.0	1.035	225.0	1	123.2	80.6															
	10278	163.8	0.0	99.0	-99.0	1.035	233.0	1	198.0	129.6															
	10279	163.8	0.0	99.0	-99.0	1.035	233.0	1	198.0	129.6															
	10281	3.65	0.0	3.0	-3.0	1.035	20.0	1	4.4	2.9															
	10282	172.7	0.0	144.0	-144.0	1.035	357.0	1	287.1	58.3															
	10284	594.7	0.0	386.0	-386.0	1.035	919.0	1	771.1	418.29999999999995															
	10285	0.05	0.0	1.0	-1.0	1.035	132.0	1	0.1	0.0															
	10288	26.400000000000002	0.0	16.0	-16.0	1.035	63.0	1	31.900000000000002	20.9															
	10289	17.4	0.0	18.0	-18.0	1.035	41.0	1	34.1	0.7															
	10290	35.5	0.0	22.0	-22.0	1.035	49.0	1	42.9	28.1															
	10291	7.3	0.0	5.0	-5.0	1.035	71.0	1	8.8	5.8															
	10292	394.95	0.0	239.0	-239.0	1.035	638.0	1	477.4	312.5															
	10293	24.55	0.0	15.0	-15.0	1.035	46.0	1	29.7	19.4															
	10294	10.0	0.0	7.000000000000001	-7.000000000000001	1.035	74.0	1	12.1	7.9															
	10295	192.0	0.0	117.0	-117.0	1.035	299.0	1	232.09999999999997	151.9															
	10296	249.35	0.0	151.0	-151.0	1.035	461.0	1	301.4	197.3															
	24	165.5	31.0	111.00000000000001	-49.0	1.03	235.3	1	221.0	110.00000000000001															
	25	167.5	39.0	100.0	-22.0	1.03	235.3	1	200.0	135.0															
	37	305.0	83.0	185.0	-19.0	1.03	426.0	1	370.0	240.0															
	37	305.0	83.0	185.0	-19.0	1.03	426.0	1	370.0	240.0															
	38	305.0	83.0	185.0	-19.0	1.03	426.0	1	370.0	240.0															
	38	305.0	83.0	185.0	-19.0	1.03	426.0	1	370.0	240.0															
	39	305.0	83.0	185.0	-19.0	1.03	426.0	1	370.0	240.0															
	40	305.0	83.0	185.0	-19.0	1.0	426.0	1	370.0	240.0															
	40	305.0	83.0	185.0	-19.0	1.0	426.0	1	370.0	240.0															
	40	305.0	83.0	185.0	-19.0	1.0	426.0	1	370.0	240.0															
	41	305.0	83.0	185.0	-19.0	1.0	426.0	1	370.0	240.0															
	41	305.0	83.0	185.0	-19.0	1.0	426.0	1	370.0	240.0															
	41	305.0	83.0	185.0	-19.0	1.0	426.0	1	370.0	240.0															
	57	162.5	37.5	108.0	-33.0	1.03	235.0	1	215.0	110.00000000000001															
	57	172.5	38.5	110.00000000000001	-33.0	1.03	235.0	1	220.00000000000003	125.0															
	58	175.0	40.0	112.99999999999999	-33.0	1.03	235.0	1	225.0	125.0															
	58	0.0	0.0	112.99999999999999	-33.0	1.03	235.0	0	225.0	120.0															
	58	167.5	40.0	112.99999999999999	-33.0	1.03	235.0	1	225.0	110.00000000000001															
	59	167.5	40.0	112.99999999999999	-33.0	1.03	235.0	1	225.0	110.00000000000001															
	60	395.0	110.5	268.0	-47.0	1.0	588.0	1	535.0	254.99999999999997															
	61	405.0	90.0	280.0	-100.0	1.0	588.0	1	560.0	250.0															
	70	177.0	47.0	105.0	-11.0	1.03	235.0	1	225.0	129.0															
	71	177.0	47.0	105.0	-11.0	1.03	235.0	1	225.0	129.0															
	71	0.0	0.0	99.0	-10.0	1.03	235.0	0	225.0	129.0															
	72	0.0	0.0	105.0	-11.0	1.0	235.0	0	225.0	129.0															
	72	177.0	47.0	105.0	-11.0	1.0	235.0	1	225.0	129.0															
	73	177.0	44.5	99.0	-10.0	1.0	235.0	1	225.0	129.0															
	73	177.0	47.0	105.0	-11.0	1.0	235.0	1	225.0	129.0															
	74	56.00000000000001	28.000000000000004	56.00000000000001	0.0	1.03	120.0	1	112.00000000000001	0.0															
	94	172.5	52.0	110.00000000000001	-6.0	1.03	270.6	1	220.00000000000003	125.0															
	94	182.5	53.5	112.99999999999999	-6.0	1.03	270.6	1	225.0	140.0															
	95	177.5	53.5	112.99999999999999	-6.0	1.03	270.6	1	225.0	130.0															
	95	175.0	53.5	112.99999999999999	-6.0	1.03	270.6	1	225.0	125.0															
	95	177.5	53.5	112.99999999999999	-6.0	1.03	270.6	1	225.0	130.0															
	98	301.5	80.5	192.0	-31.0	1.0	426.0	1	383.0	220.00000000000003															
	98	300.0	44.0	119.0	-31.0	1.0	435.3	1	380.0	220.00000000000003															
	115	6.0	0.0	0.0	0.0	1.03	12.0	1	12.0	0.0															
	115	3.0	0.0	0.0	0.0	1.03	6.0	1	6.0	0.0															
	121	0.0	0.0	112.99999999999999	-10.0	1.03	270.6	0	225.0	120.0															
	122	172.5	51.5	112.99999999999999	-10.0	1.03	270.6	1	225.0	120.0															
	123	95.0	29.5	60.0	-1.0	1.03	150.0	1	120.0	70.0															
	124	95.0	29.5	60.0	-1.0	1.03	150.0	1	120.0	70.0															
	134	0.0	0.0	60.0	0.0	1.03	150.0	0	120.0	70.0															
	135	95.0	30.0	60.0	0.0	1.03	150.0	1	120.0	70.0															
	136	95.0	15.5	31.0	0.0	1.03	117.5	1	110.00000000000001	80.0															
	144	175.0	36.5	108.0	-35.0	1.03	270.6	1	215.0	135.0															
	145	175.0	36.5	108.0	-35.0	1.03	270.6	1	215.0	135.0															
	145	180.0	39.0	112.99999999999999	-35.0	1.03	270.6	1	225.0	135.0															
	146	180.0	38.5	112.99999999999999	-36.0	1.0	270.6	1	225.0	135.0															
	146	177.5	37.0	110.00000000000001	-36.0	1.0	270.6	1	220.00000000000003	135.0															
	152	0.0	0.0	68.0	-28.999999999999996	1.03	150.0	0	135.0	-135.0															
	152	0.0	0.0	68.0	-28.999999999999996	1.03	150.0	0	135.0	-135.0															
	153	0.0	0.0	68.0	-28.999999999999996	1.03	150.0	0	135.0	-135.0															
	153	0.0	0.0	68.0	-28.999999999999996	1.03	150.0	0	135.0	-135.0															
	154	107.0	22.5	60.0	-15.0	1.03	150.0	1	120.0	94.0															
	155	107.0	22.5	60.0	-15.0	1.03	150.0	1	120.0	94.0															
	155	0.0	0.0	60.0	-15.0	1.03	150.0	0	120.0	94.0															
	169	0.0	0.0	25.0	0.0	1.03	51.4	0	50.0	40.0															
	170	0.0	0.0	60.0	-15.0	1.03	150.0	0	120.0	80.0															
	170	0.0	0.0	25.0	0.0	1.03	51.4	0	50.0	45.0															
	172	166.0	42.5	115.99999999999999	-31.0	1.03	252.4	1	231.99999999999997	100.0															
	172	0.0	0.0	103.0	-21.0	1.03	237.5	0	204.99999999999997	135.0															
	173	0.0	0.0	103.0	-21.0	1.03	237.5	0	204.99999999999997	135.0															
	173	0.0	0.0	102.0	-15.0	1.03	252.4	0	222.00000000000003	90.0															
	174	156.0	43.5	102.0	-15.0	1.0	252.4	1	222.00000000000003	90.0															
	175	156.0	43.5	102.0	-15.0	1.0	252.4	1	222.00000000000003	90.0															
	175	166.0	41.5	93.0	-10.0	1.0	252.4	1	231.99999999999997	100.0															
	180	182.5	46.0	127.0	-35.0	1.03	287.3	1	261.0	104.0															
	180	182.5	46.0	127.0	-35.0	1.03	287.3	1	261.0	104.0															
	181	163.0	43.0	103.0	-17.0	1.03	238.4	1	206.0	120.0															
	181	182.5	46.0	127.0	-35.0	1.03	287.3	1	261.0	104.0															
	182	164.5	40.0	118.0	-38.0	1.03	263.9	1	235.0	94.0															
	182	164.5	40.0	118.0	-38.0	1.03	263.9	1	235.0	94.0															
	183	163.0	43.0	103.0	-17.0	1.0	238.4	1	206.0	120.0															
	183	163.0	43.0	103.0	-17.0	1.0	238.4	1	206.0	120.0															
	191	175.0	38.5	100.0	-23.0	1.03	233.2	1	200.0	150.0															
	192	175.0	38.5	100.0	-23.0	1.03	233.2	1	200.0	150.0															
	192	0.0	0.0	100.0	-23.0	1.03	233.2	0	200.0	145.0															
	192	0.0	0.0	100.0	-23.0	1.03	233.2	0	200.0	145.0															
	193	336.0	0.0	231.99999999999997	-231.99999999999997	1.0	464.0	1	463.99999999999994	208.0															
	208	132.0	47.0	94.0	0.0	1.03	218.3	1	188.0	76.0															
	240	-10.5	14.000000000000002	90.0	-62.0	1.0	209.0	1	179.0	-200.0															
	240	-10.5	14.000000000000002	90.0	-62.0	1.0	209.0	1	179.0	-200.0															
	240	0.0	0.0	90.0	-90.0	1.0	209.0	0	179.0	-200.0															
	241	-10.5	0.0	90.0	-90.0	1.0	209.0	1	179.0	-200.0															
	244	166.25	50.0	100.0	0.0	1.03	177.1	1	220.00000000000003	112.5															
	254	39.0	10.0	20.0	0.0	1.035	78.8	1	55.00000000000001	23.0															
	254	37.5	10.0	20.0	0.0	1.035	68.8	1	50.0	25.0															
	254	37.5	10.0	20.0	0.0	1.035	68.8	1	50.0	25.0															
	254	15.0	6.0	12.0	0.0	1.035	27.6	1	23.0	7.000000000000001															
	267	1.3	0.5	1.0	0.0	1.035	0.7	1	2.1	0.5															
	268	1.3	0.5	1.0	0.0	1.035	0.7	1	2.1	0.5															
	278	0.0	0.0	4.0	0.0	1.035	10.3	0	7.200000000000001	5.9															
	279	0.0	0.0	4.0	0.0	1.035	10.3	0	7.200000000000001	5.9															
	295	3.0	1.5	3.0	0.0	1.035	5.0	1	5.0	1.0															
	295	3.0	1.5	3.0	0.0	1.035	5.0	1	5.0	1.0															
	295	3.0	1.5	3.0	0.0	1.035	5.0	1	5.0	1.0															
	295	3.0	1.5	3.0	0.0	1.035	5.0	1	5.0	1.0															
	310	305.0	83.0	185.0	-19.0	1.035	426.0	1	370.0	240.0															
	316	0.0	0.0	2.0	0.0	1.035	4.0	0	5.7	1.0															
	316	0.0	0.0	2.0	0.0	1.035	4.0	0	5.7	1.0															
	376	6.0	2.0	4.0	0.0	1.035	8.4	1	6.6000000000000005	5.4															
	379	0.6	0.5	1.0	0.0	1.035	0.9	1	0.9000000000000001	0.3															
	379	0.6	0.5	1.0	0.0	1.035	0.9	1	0.9000000000000001	0.3															
	379	0.6	0.5	1.0	0.0	1.035	0.9	1	0.9000000000000001	0.3															
	383	19.0	3.5000000000000004	7.000000000000001	0.0	1.035	31.3	1	27.0	11.0															
...
];

%% branch data
%    f_bus    t_bus    r    x    b    rateA    rateB    rateC    ratio    angle    status    angmin    angmax
mpc.branch = [
	10330	10331	1.0e-5	8.0e-5	0.0	183.0	183.0	183.0	0	0	1	-29.999999999999996	29.999999999999996								
	10300	10355	0.05932	0.20245	0.0	122.0	122.0	122.0	0	0	1	-29.999999999999996	29.999999999999996								
	10300	10360	0.02058	0.05185	0.0	106.0	106.0	106.0	0	0	1	-29.999999999999996	29.999999999999996								
	10367	10201	2.0e-5	-0.04958	0.0	659.0	659.0	659.0	0.999	0.0	1	-29.999999999999996	29.999999999999996								
	10367	10202	6.0e-5	0.08346	0.0	391.0	391.0	391.0	0.99999	0.0	1	-29.999999999999996	29.999999999999996								
	10366	10367	0.0026	0.25917	0.0	127.0	127.0	127.0	0.99999	0.0	1	-29.999999999999996	29.999999999999996								
	10368	10215	2.0e-5	-0.04961	0.0	659.0	659.0	659.0	0.999	0.0	1	-29.999999999999996	29.999999999999996								
	10368	10216	6.0e-5	0.08373	0.0	390.0	390.0	390.0	0.99999	0.0	1	-29.999999999999996	29.999999999999996								
	10369	10368	0.0026	0.26125	0.0	126.0	126.0	126.0	0.99999	0.0	1	-29.999999999999996	29.999999999999996								
	10090	10083	8.0e-5	0.00079	0.41456	736.0	736.0	736.0	0	0	1	-29.999999999999996	29.999999999999996								
	10138	10164	0.00168	0.01733	0.75504	752.0	752.0	752.0	0	0	1	-29.999999999999996	29.999999999999996								
	10139	10109	0.00071	0.00594	0.27872	680.0	680.0	680.0	0	0	1	-29.999999999999996	29.999999999999996								
	10139	10144	0.00075	0.00681	0.312	707.0	707.0	707.0	0	0	1	-29.999999999999996	29.999999999999996								
	10139	10153	0.00194	0.02	0.8336	751.0	751.0	751.0	0	0	1	-29.999999999999996	29.999999999999996								
	10140	10110	0.00071	0.00594	0.27872	680.0	680.0	680.0	0	0	1	-29.999999999999996	29.999999999999996								
	10140	10143	0.00075	0.00681	0.312	707.0	707.0	707.0	0	0	1	-29.999999999999996	29.999999999999996								
	10140	10153	0.00194	0.02	0.8336	751.0	751.0	751.0	0	0	1	-29.999999999999996	29.999999999999996								
	10141	10153	0.00233	0.01696	0.70784	637.0	637.0	637.0	0	0	1	-29.999999999999996	29.999999999999996								
	10090	10085	0.00017	0.00148	1.23008	693.0	693.0	693.0	0	0	1	-29.999999999999996	29.999999999999996								
	10141	10158	0.00204	0.01707	0.71344	680.0	680.0	680.0	0	0	1	-29.999999999999996	29.999999999999996								
	10141	10158	0.00204	0.01707	0.71344	680.0	680.0	680.0	0	0	1	-29.999999999999996	29.999999999999996								
	10143	10144	1.0e-5	6.0e-5	0.0	581.0	581.0	581.0	0	0	1	-29.999999999999996	29.999999999999996								
	10143	10153	0.00169	0.01381	0.6496	673.0	673.0	673.0	0	0	1	-29.999999999999996	29.999999999999996								
	10143	10156	0.00119	0.00969	0.4544	672.0	672.0	672.0	0	0	1	-29.999999999999996	29.999999999999996								
	10144	10126	0.00306	0.02537	1.19168	677.0	677.0	677.0	0	0	1	-29.999999999999996	29.999999999999996								
	10144	10153	0.00169	0.01381	0.6496	673.0	673.0	673.0	0	0	1	-29.999999999999996	29.999999999999996								
	10144	10165	0.00244	0.02044	0.9584	681.0	681.0	681.0	0	0	1	-29.999999999999996	29.999999999999996								
	10091	10090	9.0e-5	0.00106	1.10432	801.0	801.0	801.0	0	0	1	-29.999999999999996	29.999999999999996								
	10145	10147	0.00194	0.01606	0.75456	677.0	677.0	677.0	0	0	1	-29.999999999999996	29.999999999999996								
	10145	10158	0.00189	0.01232	0.61088	604.0	604.0	604.0	0	0	1	-29.999999999999996	29.999999999999996								
	10171	10094	0.0	6.0e-5	0.0	479684.0	479684.0	479684.0	0	0	1	-29.999999999999996	29.999999999999996								
	10145	10082	0.00091	0.00923	0.39197	746.0	746.0	746.0	0	0	1	-29.999999999999996	29.999999999999996								
	10145	10082	0.00091	0.00923	0.39197	746.0	746.0	746.0	0	0	1	-29.999999999999996	29.999999999999996								
	10146	10154	0.00503	0.01845	0.05812	252.99999999999997	252.99999999999997	252.99999999999997	0	0	1	-29.999999999999996	29.999999999999996								
	10172	10095	0.0	6.0e-5	0.0	479684.0	479684.0	479684.0	0	0	1	-29.999999999999996	29.999999999999996								
	10147	10153	0.00156	0.01288	0.6032	676.0	676.0	676.0	0	0	1	-29.999999999999996	29.999999999999996								
	10173	10095	0.0	6.0e-5	0.0	479684.0	479684.0	479684.0	0	0	1	-29.999999999999996	29.999999999999996								
	10147	10153	0.00156	0.01288	0.6032	676.0	676.0	676.0	0	0	1	-29.999999999999996	29.999999999999996								
	10174	10096	2.0e-5	0.00016	0.0008	666.0	666.0	666.0	0	0	1	-29.999999999999996	29.999999999999996								
	10147	10161	0.00113	0.00962	0.4528	686.0	686.0	686.0	0	0	1	-29.999999999999996	29.999999999999996								
	10176	10098	0.00029	0.00219	0.11056	648.0	648.0	648.0	0	0	1	-29.999999999999996	29.999999999999996								
	10177	10098	0.00029	0.00219	0.11056	648.0	648.0	648.0	0	0	1	-29.999999999999996	29.999999999999996								
	10147	10169	0.00041	0.00423	0.18496	752.0	752.0	752.0	0	0	1	-29.999999999999996	29.999999999999996								
	10147	10170	0.00041	0.00423	0.18496	752.0	752.0	752.0	0	0	1	-29.999999999999996	29.999999999999996								
	10091	10090	9.0e-5	0.00106	1.10432	801.0	801.0	801.0	0	0	1	-29.999999999999996	29.999999999999996								
	10147	10037	0.00105	0.00925	0.37437	697.0	697.0	697.0	0	0	1	-29.999999999999996	29.999999999999996								
	10147	10037	0.00105	0.00925	0.37437	697.0	697.0	697.0	0	0	1	-29.999999999999996	29.999999999999996								
	10148	10136	0.00293	0.01074	0.03436	252.99999999999997	252.99999999999997	252.99999999999997	0	0	1	-29.999999999999996	29.999999999999996								
	10148	10149	2.0e-5	0.0001	0.0	293.0	293.0	293.0	0	0	1	-29.999999999999996	29.999999999999996								
	10149	10136	0.00293	0.01074	0.03436	252.99999999999997	252.99999999999997	252.99999999999997	0	0	1	-29.999999999999996	29.999999999999996								
	10149	10162	0.01595	0.06457	0.17037	265.0	265.0	265.0	0	0	1	-29.999999999999996	29.999999999999996								
	10151	10147	0.00188	0.01925	0.8432	749.0	749.0	749.0	0	0	1	-29.999999999999996	29.999999999999996								
	10152	10164	0.00364	0.03742	1.6384	750.0	750.0	750.0	0	0	1	-29.999999999999996	29.999999999999996								
	10156	10165	0.00131	0.011	0.5168	681.0	681.0	681.0	0	0	1	-29.999999999999996	29.999999999999996								
	10158	10081	0.00127	0.0132	0.5505	754.0	754.0	754.0	0	0	1	-29.999999999999996	29.999999999999996								
	10091	10164	0.0023	0.02084	0.8752	707.0	707.0	707.0	0	0	1	-29.999999999999996	29.999999999999996								
	10159	10163	0.00517	0.03967	0.12439	359.0	359.0	359.0	0	0	1	-29.999999999999996	29.999999999999996								
	10159	10163	0.00517	0.03967	0.12439	359.0	359.0	359.0	0	0	1	-29.999999999999996	29.999999999999996								
	10160	10137	0.0099	0.03659	0.11674	254.0	254.0	254.0	0	0	1	-29.999999999999996	29.999999999999996								
	10161	10145	0.00088	0.007	0.3296	664.0	664.0	664.0	0	0	1	-29.999999999999996	29.999999999999996								
	10162	10122	0.00527	0.0193	0.06156	252.99999999999997	252.99999999999997	252.99999999999997	0	0	1	-29.999999999999996	29.999999999999996								
	10162	10122	0.00527	0.0193	0.06156	252.99999999999997	252.99999999999997	252.99999999999997	0	0	1	-29.999999999999996	29.999999999999996								
	10164	10165	0.00323	0.03369	1.40518	756.0	756.0	756.0	0	0	1	-29.999999999999996	29.999999999999996								
	10164	10080	6.0e-5	0.00059	0.02467	735.0	735.0	735.0	0	0	1	-29.999999999999996	29.999999999999996								
	10092	10089	0.00046	0.00474	0.01943	413.0	413.0	413.0	0	0	1	-29.999999999999996	29.999999999999996								
	10164	10080	6.0e-5	0.00059	0.02467	735.0	735.0	735.0	0	0	1	-29.999999999999996	29.999999999999996								
	10165	10091	0.00067	0.00696	0.2904	754.0	754.0	754.0	0	0	1	-29.999999999999996	29.999999999999996								
	10167	10169	8.0e-5	0.00067	0.02976	681.0	681.0	681.0	0	0	1	-29.999999999999996	29.999999999999996								
	10168	10170	8.0e-5	0.00067	0.02976	681.0	681.0	681.0	0	0	1	-29.999999999999996	29.999999999999996								
	10310	10311	8.0e-5	0.00041	0.0	148.0	148.0	148.0	0	0	1	-29.999999999999996	29.999999999999996								
	10330	10359	0.01322	0.04793	0.0092	250.0	250.0	250.0	0	0	1	-29.999999999999996	29.999999999999996								
	10331	10359	0.01322	0.04793	0.0092	250.0	250.0	250.0	0	0	1	-29.999999999999996	29.999999999999996								
	10092	10157	0.00627	0.02339	0.07357	254.99999999999997	254.99999999999997	254.99999999999997	0	0	1	-29.999999999999996	29.999999999999996								
	10346	10347	8.0e-5	0.00041	0.0	148.0	148.0	148.0	0	0	1	-29.999999999999996	29.999999999999996								
	10359	10310	0.02975	0.10992	0.0219	127.0	127.0	127.0	0	0	1	-29.999999999999996	29.999999999999996								
	10359	10311	0.02975	0.10992	0.0219	127.0	127.0	127.0	0	0	1	-29.999999999999996	29.999999999999996								
	10359	10346	0.01157	0.04298	0.00859	127.0	127.0	127.0	0	0	1	-29.999999999999996	29.999999999999996								
	10359	10347	0.01157	0.04298	0.00859	127.0	127.0	127.0	0	0	1	-29.999999999999996	29.999999999999996								
	10301	10319	0.01298	0.09959	0.01949	180.0	180.0	180.0	0	0	1	-29.999999999999996	29.999999999999996								
	10301	10319	0.01298	0.09959	0.01949	180.0	180.0	180.0	0	0	1	-29.999999999999996	29.999999999999996								
	10301	10327	0.03223	0.16033	0.03037	146.0	146.0	146.0	0	0	1	-29.999999999999996	29.999999999999996								
	10093	10088	0.00046	0.00474	0.01943	413.0	413.0	413.0	0	0	1	-29.999999999999996	29.999999999999996								
	10301	10327	0.03223	0.16033	0.03037	146.0	146.0	146.0	0	0	1	-29.999999999999996	29.999999999999996								
	10313	10314	1.0e-5	0.00041	0.0	400.0	400.0	400.0	0	0	1	-29.999999999999996	29.999999999999996								
	10315	10316	1.0e-5	0.00041	0.0	400.0	400.0	400.0	0	0	1	-29.999999999999996	29.999999999999996								
	10315	10317	1.0e-5	0.00041	0.0	400.0	400.0	400.0	0	0	1	-29.999999999999996	29.999999999999996								
	10339	10313	0.00012	0.00118	0.00028	202.0	202.0	202.0	0	0	1	-29.999999999999996	29.999999999999996								
	10339	10340	1.0e-5	0.00041	0.0	400.0	400.0	400.0	0	0	1	-29.999999999999996	29.999999999999996								
	10340	10314	7.0e-5	0.00066	0.00016	198.0	198.0	198.0	0	0	1	-29.999999999999996	29.999999999999996								
	10354	10353	1.0e-5	0.00041	0.0	400.0	400.0	400.0	0	0	1	-29.999999999999996	29.999999999999996								
	10303	10304	8.0e-5	0.00041	0.0	148.0	148.0	148.0	0	0	1	-29.999999999999996	29.999999999999996								
	10093	10157	0.0064	0.02314	0.07299	250.99999999999997	250.99999999999997	250.99999999999997	0	0	1	-29.999999999999996	29.999999999999996								
	10322	10323	8.0e-5	0.00041	0.0	148.0	148.0	148.0	0	0	1	-29.999999999999996	29.999999999999996								
	10099	10115	0.00014	0.00127	0.0568	707.0	707.0	707.0	0	0	1	-29.999999999999996	29.999999999999996								
	10084	10087	7.0e-5	0.00077	0.4808	775.0	775.0	775.0	0	0	1	-29.999999999999996	29.999999999999996								
	10099	10116	0.00014	0.00127	0.0568	707.0	707.0	707.0	0	0	1	-29.999999999999996	29.999999999999996								
	10099	10145	0.00091	0.00842	0.37584	714.0	714.0	714.0	0	0	1	-29.999999999999996	29.999999999999996								
	10099	10145	0.00091	0.00842	0.37584	714.0	714.0	714.0	0	0	1	-29.999999999999996	29.999999999999996								
	10099	10158	0.00115	0.01064	0.47546	714.0	714.0	714.0	0	0	1	-29.999999999999996	29.999999999999996								
	10099	10158	0.00115	0.01064	0.47546	714.0	714.0	714.0	0	0	1	-29.999999999999996	29.999999999999996								
	10099	10079	0.00206	0.01905	0.85158	714.0	714.0	714.0	0	0	1	-29.999999999999996	29.999999999999996								
	10099	10079	0.00206	0.01905	0.85158	714.0	714.0	714.0	0	0	1	-29.999999999999996	29.999999999999996								
	10100	10118	0.00034	0.00354	0.1544	755.0	755.0	755.0	0	0	1	-29.999999999999996	29.999999999999996								
	10100	10118	0.00034	0.00354	0.1544	755.0	755.0	755.0	0	0	1	-29.999999999999996	29.999999999999996								
	10100	10151	0.00075	0.00744	0.3264	738.0	738.0	738.0	0	0	1	-29.999999999999996	29.999999999999996								
	10084	10087	7.0e-5	0.00076	0.51264	770.0	770.0	770.0	0	0	1	-29.999999999999996	29.999999999999996								
	10100	10151	0.00075	0.00744	0.3264	738.0	738.0	738.0	0	0	1	-29.999999999999996	29.999999999999996								
	10100	10153	0.00144	0.01506	0.6592	757.0	757.0	757.0	0	0	1	-29.999999999999996	29.999999999999996								
	10100	10153	0.00144	0.01506	0.6592	757.0	757.0	757.0	0	0	1	-29.999999999999996	29.999999999999996								
	10101	10135	0.01399	0.05116	0.16408	252.0	252.0	252.0	0	0	1	-29.999999999999996	29.999999999999996								
	10101	10137	0.0049	0.01791	0.0574	252.0	252.0	252.0	0	0	1	-29.999999999999996	29.999999999999996								
	10102	10166	0.00909	0.03285	0.10503	250.99999999999997	250.99999999999997	250.99999999999997	0	0	1	-29.999999999999996	29.999999999999996								
	10102	10166	0.00909	0.03285	0.10503	250.99999999999997	250.99999999999997	250.99999999999997	0	0	1	-29.999999999999996	29.999999999999996								
	10103	10104	0.00125	0.00625	0.0	532.0	532.0	532.0	0	0	1	-29.999999999999996	29.999999999999996								
	10103	10120	0.00061	0.00564	0.252	713.0	713.0	713.0	0	0	1	-29.999999999999996	29.999999999999996								
	10103	10120	0.00061	0.00564	0.252	713.0	713.0	713.0	0	0	1	-29.999999999999996	29.999999999999996								
	10085	10084	8.0e-5	0.00095	0.58816	803.9999999999999	803.9999999999999	803.9999999999999	0	0	1	-29.999999999999996	29.999999999999996								
	10103	10150	0.00013	0.00119	0.05328	710.0	710.0	710.0	0	0	1	-29.999999999999996	29.999999999999996								
	10105	10148	0.00492	0.01798	0.05731	252.0	252.0	252.0	0	0	1	-29.999999999999996	29.999999999999996								
	10105	10149	0.00492	0.01798	0.05731	252.0	252.0	252.0	0	0	1	-29.999999999999996	29.999999999999996								
	10106	10147	0.00131	0.01339	0.58672	748.0	748.0	748.0	0	0	1	-29.999999999999996	29.999999999999996								
	10106	10151	0.00056	0.00584	0.25616	756.0	756.0	756.0	0	0	1	-29.999999999999996	29.999999999999996								
	10107	10109	0.00014	0.00127	0.0568	707.0	707.0	707.0	0	0	1	-29.999999999999996	29.999999999999996								
	10108	10110	0.00014	0.00127	0.0568	707.0	707.0	707.0	0	0	1	-29.999999999999996	29.999999999999996								
	10111	10158	0.00118	0.01186	0.50192	742.0	742.0	742.0	0	0	1	-29.999999999999996	29.999999999999996								
	10111	10081	0.00051	0.00528	0.22019	753.0	753.0	753.0	0	0	1	-29.999999999999996	29.999999999999996								
	10112	10159	0.00153	0.00561	0.01801	252.99999999999997	252.99999999999997	252.99999999999997	0	0	1	-29.999999999999996	29.999999999999996								
	10085	10086	0.0	6.0e-5	0.0	479684.0	479684.0	479684.0	0	0	1	-29.999999999999996	29.999999999999996								
	10112	10159	0.00109	0.004	0.01284	252.99999999999997	252.99999999999997	252.99999999999997	0	0	1	-29.999999999999996	29.999999999999996								
	10112	10159	0.00109	0.004	0.01284	252.99999999999997	252.99999999999997	252.99999999999997	0	0	1	-29.999999999999996	29.999999999999996								
	10113	10141	0.00031	0.00286	0.12781	713.0	713.0	713.0	0	0	1	-29.999999999999996	29.999999999999996								
	10113	10153	0.00037	0.00343	0.15334	714.0	714.0	714.0	0	0	1	-29.999999999999996	29.999999999999996								
	10114	10127	0.01116	0.04091	0.13068	252.99999999999997	252.99999999999997	252.99999999999997	0	0	1	-29.999999999999996	29.999999999999996								
	10183	10198	0.00084	0.01065	0.39616	828.9999999999999	828.9999999999999	828.9999999999999	0	0	1	-29.999999999999996	29.999999999999996								
	10183	10217	0.00146	0.01809	0.63888	819.9999999999999	819.9999999999999	819.9999999999999	0	0	1	-29.999999999999996	29.999999999999996								
	10184	10199	0.01019	0.06849	0.1012	337.0	337.0	337.0	0	0	1	-29.999999999999996	29.999999999999996								
	10184	10209	0.01204	0.06105	0.08659	295.0	295.0	295.0	0	0	1	-29.999999999999996	29.999999999999996								
	10184	10216	0.01029	0.0401	0.10522	260.0	260.0	260.0	0	0	1	-29.999999999999996	29.999999999999996								
	10185	10205	0.00065	0.00657	0.2224	744.0	744.0	744.0	0	0	1	-29.999999999999996	29.999999999999996								
	10186	10199	0.00155	0.01508	0.02396	401.99999999999994	401.99999999999994	401.99999999999994	0	0	1	-29.999999999999996	29.999999999999996								
	10187	10200	0.00156	0.01518	0.02415	401.99999999999994	401.99999999999994	401.99999999999994	0	0	1	-29.999999999999996	29.999999999999996								
	10188	10183	0.00057	0.00724	0.26592	830.0000000000001	830.0000000000001	830.0000000000001	0	0	1	-29.999999999999996	29.999999999999996								
	10189	10198	0.00028	0.00346	0.1312	819.0	819.0	819.0	0	0	1	-29.999999999999996	29.999999999999996								
	10192	10193	0.0	0.0001	0.0	321643.0	321643.0	321643.0	0	0	1	-29.999999999999996	29.999999999999996								
	10192	10222	0.00488	0.0332	0.05542	339.0	339.0	339.0	0	0	1	-29.999999999999996	29.999999999999996								
	10196	10208	0.00059	0.00752	0.26672	831.0	831.0	831.0	0	0	1	-29.999999999999996	29.999999999999996								
	10197	10215	0.00092	0.01193	0.47104	838.0000000000001	838.0000000000001	838.0000000000001	0	0	1	-29.999999999999996	29.999999999999996								
	10198	10208	0.00081	0.00867	0.27808	765.0	765.0	765.0	0	0	1	-29.999999999999996	29.999999999999996								
	10199	10200	0.0	0.0001	0.0	321643.0	321643.0	321643.0	0	0	1	-29.999999999999996	29.999999999999996								
	10199	10211	0.00752	0.04678	0.06534	325.0	325.0	325.0	0	0	1	-29.999999999999996	29.999999999999996								
	10201	10213	0.00112	0.01179	0.35472	759.0	759.0	759.0	0	0	1	-29.999999999999996	29.999999999999996								
	10201	10220	0.00156	0.01658	0.4112	762.0	762.0	762.0	0	0	1	-29.999999999999996	29.999999999999996								
	10202	10193	0.01	0.06793	0.1134	339.0	339.0	339.0	0	0	1	-29.999999999999996	29.999999999999996								
	10202	10203	0.0	0.0001	0.0	321643.0	321643.0	321643.0	0	0	1	-29.999999999999996	29.999999999999996								
	10202	10206	0.03436	0.16971	0.24563	186.0	186.0	186.0	0	0	1	-29.999999999999996	29.999999999999996								
	10202	10222	0.00595	0.04035	0.06732	339.0	339.0	339.0	0	0	1	-29.999999999999996	29.999999999999996								
	10204	10210	0.00214	0.02232	0.71616	756.0	756.0	756.0	0	0	1	-29.999999999999996	29.999999999999996								
	10205	10213	0.00154	0.01628	0.52272	761.0	761.0	761.0	0	0	1	-29.999999999999996	29.999999999999996								
	10205	10215	0.00078	0.00855	0.2736	774.0	774.0	774.0	0	0	1	-29.999999999999996	29.999999999999996								
	10205	10217	0.00108	0.01152	0.352	764.0	764.0	764.0	0	0	1	-29.999999999999996	29.999999999999996								
	10206	10216	0.01105	0.05364	0.07957	289.0	289.0	289.0	0	0	1	-29.999999999999996	29.999999999999996								
	10207	10210	0.00185	0.01772	0.57632	726.0	726.0	726.0	0	0	1	-29.999999999999996	29.999999999999996								
	10207	10220	0.00156	0.01757	0.552	784.0	784.0	784.0	0	0	1	-29.999999999999996	29.999999999999996								
	10208	10214	0.00058	0.0082	0.28864	874.0	874.0	874.0	0	0	1	-29.999999999999996	29.999999999999996								
	10212	10216	0.00504	0.0312	0.05087	324.0	324.0	324.0	0	0	1	-29.999999999999996	29.999999999999996								
	10212	10216	0.00504	0.0312	0.05087	324.0	324.0	324.0	0	0	1	-29.999999999999996	29.999999999999996								
	10215	10217	0.00033	0.00346	0.1112	758.0	758.0	758.0	0	0	1	-29.999999999999996	29.999999999999996								
	10218	10190	0.0001	0.00123	0.04912	817.0	817.0	817.0	0	0	1	-29.999999999999996	29.999999999999996								
	10218	10197	0.00086	0.01148	0.4	850.0	850.0	850.0	0	0	1	-29.999999999999996	29.999999999999996								
	10218	10204	0.00026	0.00286	0.08848	775.0	775.0	775.0	0	0	1	-29.999999999999996	29.999999999999996								
	10218	10219	0.0	6.0e-5	0.0	479684.0	479684.0	479684.0	0	0	1	-29.999999999999996	29.999999999999996								
	10219	10191	0.0001	0.00124	0.04976	821.0000000000001	821.0000000000001	821.0000000000001	0	0	1	-29.999999999999996	29.999999999999996								
	10219	10198	0.00104	0.01237	0.37936	805.0000000000001	805.0000000000001	805.0000000000001	0	0	1	-29.999999999999996	29.999999999999996								
	10219	10204	0.00026	0.00307	0.1088	802.0	802.0	802.0	0	0	1	-29.999999999999996	29.999999999999996								
	10220	10194	9.0e-5	0.00101	0.03168	782.0	782.0	782.0	0	0	1	-29.999999999999996	29.999999999999996								
	10220	10195	9.0e-5	0.00097	0.03072	768.0	768.0	768.0	0	0	1	-29.999999999999996	29.999999999999996								
	10114	10128	0.01116	0.04091	0.13068	252.99999999999997	252.99999999999997	252.99999999999997	0	0	1	-29.999999999999996	29.999999999999996								
	10180	10064	0.01085	0.05289	0.08301	289.0	289.0	289.0	0	0	1	-29.999999999999996	29.999999999999996								
	10181	10064	0.01085	0.05289	0.08301	289.0	289.0	289.0	0	0	1	-29.999999999999996	29.999999999999996								
	10182	10063	0.00065	0.00924	0.276	876.0	876.0	876.0	0	0	1	-29.999999999999996	29.999999999999996								
	10178	10204	0.00078	0.00875	0.13616	782.0	782.0	782.0	0	0	1	-29.999999999999996	29.999999999999996								
	10114	10148	0.00864	0.03777	0.0848	275.0	275.0	275.0	0	0	1	-29.999999999999996	29.999999999999996								
	10179	10196	0.00036	0.00429	0.1168	805.0000000000001	805.0000000000001	805.0000000000001	0	0	1	-29.999999999999996	29.999999999999996								
	10039	10078	0.00101	0.01281	0.6424	830.0000000000001	830.0000000000001	830.0000000000001	0	0	1	-29.999999999999996	29.999999999999996								
	10039	10038	0.00106	0.01368	0.5168	836.0	836.0	836.0	0	0	1	-29.999999999999996	29.999999999999996								
	10043	10209	0.00839	0.04277	0.06002	296.0	296.0	296.0	0	0	1	-29.999999999999996	29.999999999999996								
	10043	10044	0.00839	0.04277	0.06026	296.0	296.0	296.0	0	0	1	-29.999999999999996	29.999999999999996								
	10049	10217	0.00075	0.0072	0.21824	726.0	726.0	726.0	0	0	1	-29.999999999999996	29.999999999999996								
	10049	10048	0.00068	0.00728	0.2176	765.0	765.0	765.0	0	0	1	-29.999999999999996	29.999999999999996								
	10057	10078	0.00067	0.00819	0.47648	815.0	815.0	815.0	0	0	1	-29.999999999999996	29.999999999999996								
	10057	10056	0.00075	0.0091	0.356	811.9999999999999	811.9999999999999	811.9999999999999	0	0	1	-29.999999999999996	29.999999999999996								
	10114	10155	0.0045	0.01649	0.05256	252.99999999999997	252.99999999999997	252.99999999999997	0	0	1	-29.999999999999996	29.999999999999996								
	10066	10198	0.00118	0.01209	0.3728	749.0	749.0	749.0	0	0	1	-29.999999999999996	29.999999999999996								
	10066	10065	0.00118	0.01209	0.3728	749.0	749.0	749.0	0	0	1	-29.999999999999996	29.999999999999996								
	10067	10211	0.00627	0.04117	0.06002	334.0	334.0	334.0	0	0	1	-29.999999999999996	29.999999999999996								
	10067	10064	0.00627	0.04117	0.05808	334.0	334.0	334.0	0	0	1	-29.999999999999996	29.999999999999996								
	10068	10214	0.00069	0.0089	0.32384	836.0	836.0	836.0	0	0	1	-29.999999999999996	29.999999999999996								
	10068	10065	0.00069	0.0089	0.324	836.0	836.0	836.0	0	0	1	-29.999999999999996	29.999999999999996								
	10221	10220	0.00053	0.00544	0.06784	750.0	750.0	750.0	0	0	1	-29.999999999999996	29.999999999999996								
	10221	10223	0.00052	0.00544	0.136	757.0	757.0	757.0	0	0	1	-29.999999999999996	29.999999999999996								
...
];

%%-----  OPF Data  -----%%
%% cost data
%    1    startup    shutdown    n    x1    y1    ...    xn    yn
%    2    startup    shutdown    n    c(n-1)    ...    c0
mpc.gencost = [
	2	0.0	0.0	2	198.86	0.0
	2	0.0	0.0	2	240.26	0.0
	2	0.0	0.0	2	240.26	0.0
	2	0.0	0.0	2	240.26	0.0
	2	0.0	0.0	2	240.26	0.0
	2	0.0	0.0	2	240.26	0.0
	2	0.0	0.0	2	240.26	0.0
	2	0.0	0.0	2	240.26	0.0
	2	0.0	0.0	2	240.26	0.0
	2	0.0	0.0	2	240.26	0.0
	2	0.0	0.0	2	240.26	0.0
	2	0.0	0.0	2	240.26	0.0
	2	0.0	0.0	2	240.26	0.0
	2	0.0	0.0	2	240.26	0.0
	2	0.0	0.0	2	240.26	0.0
	2	0.0	0.0	2	240.26	0.0
	2	0.0	0.0	2	240.26	0.0
	2	0.0	0.0	2	240.26	0.0
	2	0.0	0.0	2	240.26	0.0
	2	0.0	0.0	2	240.26	0.0
	2	0.0	0.0	2	240.26	0.0
	2	0.0	0.0	2	240.26	0.0
	2	0.0	0.0	2	236.70000000000002	0.0
	2	0.0	0.0	2	236.70000000000002	0.0
	2	0.0	0.0	2	236.70000000000002	0.0
	2	0.0	0.0	2	236.70000000000002	0.0
	2	0.0	0.0	2	236.70000000000002	0.0
	2	0.0	0.0	2	236.70000000000002	0.0
	2	0.0	0.0	2	236.70000000000002	0.0
	2	0.0	0.0	2	236.70000000000002	0.0
	2	0.0	0.0	2	236.70000000000002	0.0
	2	0.0	0.0	2	100.0	0.0
	2	0.0	0.0	2	198.86	0.0
	2	0.0	0.0	2	198.86	0.0
	2	0.0	0.0	2	198.86	0.0
	2	0.0	0.0	2	198.86	0.0
	2	0.0	0.0	2	198.86	0.0
	2	0.0	0.0	2	198.86	0.0
	2	0.0	0.0	2	198.86	0.0
	2	0.0	0.0	2	198.86	0.0
	2	0.0	0.0	2	198.86	0.0
	2	0.0	0.0	2	198.86	0.0
	2	0.0	0.0	2	198.86	0.0
	2	0.0	0.0	2	198.86	0.0
	2	0.0	0.0	2	198.86	0.0
	2	0.0	0.0	2	198.86	0.0
	2	0.0	0.0	2	198.86	0.0
	2	0.0	0.0	2	198.86	0.0
	2	0.0	0.0	2	198.86	0.0
	2	0.0	0.0	2	198.86	0.0
	2	0.0	0.0	2	198.86	0.0
	2	0.0	0.0	2	198.86	0.0
	2	0.0	0.0	2	198.86	0.0
	2	0.0	0.0	2	198.86	0.0
	2	0.0	0.0	2	198.86	0.0
	2	0.0	0.0	2	198.86	0.0
	2	0.0	0.0	2	198.86	0.0
	2	0.0	0.0	2	198.86	0.0
	2	0.0	0.0	2	198.86	0.0
	2	0.0	0.0	2	198.86	0.0
	2	0.0	0.0	2	198.86	0.0
	2	0.0	0.0	2	198.86	0.0
	2	0.0	0.0	2	198.86	0.0
	2	0.0	0.0	2	198.86	0.0
	2	0.0	0.0	2	198.86	0.0
	2	0.0	0.0	2	198.86	0.0
	2	0.0	0.0	2	198.86	0.0
	2	0.0	0.0	2	198.86	0.0
	2	0.0	0.0	2	198.86	0.0
	2	0.0	0.0	2	198.86	0.0
	2	0.0	0.0	2	198.86	0.0
	2	0.0	0.0	2	198.86	0.0
	2	0.0	0.0	2	198.86	0.0
	2	0.0	0.0	2	198.86	0.0
	2	0.0	0.0	2	198.86	0.0
	2	0.0	0.0	2	198.86	0.0
	2	0.0	0.0	2	198.86	0.0
	2	0.0	0.0	2	198.86	0.0
	2	0.0	0.0	2	198.86	0.0
	2	0.0	0.0	2	198.86	0.0
	2	0.0	0.0	2	198.86	0.0
	2	0.0	0.0	2	198.86	0.0
	2	0.0	0.0	2	198.86	0.0
	2	0.0	0.0	2	198.86	0.0
	2	0.0	0.0	2	198.86	0.0
	2	0.0	0.0	2	198.86	0.0
	2	0.0	0.0	2	198.86	0.0
	2	0.0	0.0	2	198.86	0.0
	2	0.0	0.0	2	198.86	0.0
	2	0.0	0.0	2	198.86	0.0
	2	0.0	0.0	2	198.86	0.0
	2	0.0	0.0	2	198.86	0.0
	2	0.0	0.0	2	198.86	0.0
	2	0.0	0.0	2	198.86	0.0
	2	0.0	0.0	2	158.61	0.0
	2	0.0	0.0	2	158.61	0.0
	2	0.0	0.0	2	107.03	0.0
	2	0.0	0.0	2	107.03	0.0
	2	0.0	0.0	2	107.03	0.0
	2	0.0	0.0	2	107.03	0.0
	2	0.0	0.0	2	107.03	0.0
	2	0.0	0.0	2	107.03	0.0
	2	0.0	0.0	2	107.03	0.0
	2	0.0	0.0	2	107.03	0.0
	2	0.0	0.0	2	107.03	0.0
	2	0.0	0.0	2	107.03	0.0
	2	0.0	0.0	2	107.03	0.0
	2	0.0	0.0	2	143.52	0.0
	2	0.0	0.0	2	143.52	0.0
	2	0.0	0.0	2	143.52	0.0
	2	0.0	0.0	2	143.52	0.0
	2	0.0	0.0	2	143.52	0.0
	2	0.0	0.0	2	143.52	0.0
	2	0.0	0.0	2	143.52	0.0
	2	0.0	0.0	2	143.52	0.0
	2	0.0	0.0	2	148.16	0.0
	2	0.0	0.0	2	148.16	0.0
	2	0.0	0.0	2	148.16	0.0
	2	0.0	0.0	2	148.16	0.0
	2	0.0	0.0	2	148.16	0.0
	2	0.0	0.0	2	148.16	0.0
	2	0.0	0.0	2	148.16	0.0
	2	0.0	0.0	2	0.0	0.0
	2	0.0	0.0	2	134.04	0.0
	2	0.0	0.0	2	134.04	0.0
	2	0.0	0.0	2	134.04	0.0
	2	0.0	0.0	2	134.04	0.0
	2	0.0	0.0	2	134.04	0.0
	2	0.0	0.0	2	126.62	0.0
	2	0.0	0.0	2	126.62	0.0
	2	0.0	0.0	2	0.0	0.0
	2	0.0	0.0	2	0.0	0.0
	2	0.0	0.0	2	130.49	0.0
	2	0.0	0.0	2	130.49	0.0
	2	0.0	0.0	2	132.33	0.0
	2	0.0	0.0	2	132.33	0.0
	2	0.0	0.0	2	136.59	0.0
	2	0.0	0.0	2	136.59	0.0
	2	0.0	0.0	2	139.96	0.0
	2	0.0	0.0	2	128.21	0.0
	2	0.0	0.0	2	128.21	0.0
	2	0.0	0.0	2	128.21	0.0
	2	0.0	0.0	2	128.21	0.0
	2	0.0	0.0	2	128.21	0.0
	2	0.0	0.0	2	137.4	0.0
	2	0.0	0.0	2	137.4	0.0
	2	0.0	0.0	2	137.4	0.0
	2	0.0	0.0	2	137.4	0.0
	2	0.0	0.0	2	129.99	0.0
	2	0.0	0.0	2	129.99	0.0
	2	0.0	0.0	2	129.99	0.0
	2	0.0	0.0	2	135.6	0.0
	2	0.0	0.0	2	135.6	0.0
	2	0.0	0.0	2	135.6	0.0
	2	0.0	0.0	2	163.16	0.0
	2	0.0	0.0	2	163.16	0.0
	2	0.0	0.0	2	163.16	0.0
	2	0.0	0.0	2	163.16	0.0
	2	0.0	0.0	2	163.16	0.0
	2	0.0	0.0	2	163.16	0.0
	2	0.0	0.0	2	163.16	0.0
	2	0.0	0.0	2	139.01	0.0
	2	0.0	0.0	2	139.01	0.0
	2	0.0	0.0	2	139.01	0.0
	2	0.0	0.0	2	139.01	0.0
	2	0.0	0.0	2	139.01	0.0
	2	0.0	0.0	2	139.01	0.0
	2	0.0	0.0	2	139.01	0.0
	2	0.0	0.0	2	139.01	0.0
	2	0.0	0.0	2	125.48	0.0
	2	0.0	0.0	2	125.48	0.0
	2	0.0	0.0	2	125.48	0.0
	2	0.0	0.0	2	125.48	0.0
	2	0.0	0.0	2	125.48	0.0
	2	0.0	0.0	2	137.4	0.0
	2	0.0	0.0	2	137.4	0.0
	2	0.0	0.0	2	137.4	0.0
	2	0.0	0.0	2	137.4	0.0
	2	0.0	0.0	2	137.4	0.0
	2	0.0	0.0	2	0.0	0.0
	2	0.0	0.0	2	0.0	0.0
	2	0.0	0.0	2	0.0	0.0
	2	0.0	0.0	2	0.0	0.0
	2	0.0	0.0	2	0.0	0.0
	2	0.0	0.0	2	0.0	0.0
	2	0.0	0.0	2	0.0	0.0
	2	0.0	0.0	2	0.0	0.0
	2	0.0	0.0	2	0.0	0.0
	2	0.0	0.0	2	0.0	0.0
	2	0.0	0.0	2	0.0	0.0
	2	0.0	0.0	2	0.0	0.0
	2	0.0	0.0	2	0.0	0.0
	2	0.0	0.0	2	107.03	0.0
	2	0.0	0.0	2	0.0	0.0
	2	0.0	0.0	2	0.0	0.0
	2	0.0	0.0	2	0.0	0.0
	2	0.0	0.0	2	0.0	0.0
	2	0.0	0.0	2	0.0	0.0
	2	0.0	0.0	2	0.0	0.0
	2	0.0	0.0	2	0.0	0.0
...
];

